Version 4
SHEET 1 9656 1364
WIRE 9584 448 9248 448
WIRE 7440 480 7104 480
WIRE 8672 496 8368 496
WIRE 9008 496 8672 496
WIRE 9168 496 9008 496
WIRE 6864 528 6528 528
WIRE 7296 528 6864 528
WIRE 8368 576 8368 496
WIRE 9008 608 9008 496
WIRE 9248 608 9248 448
WIRE 9584 624 9584 448
WIRE 6864 640 6864 528
WIRE 7104 640 7104 480
WIRE 8672 640 8672 496
WIRE 7440 656 7440 480
WIRE 8944 656 8880 656
WIRE 6528 672 6528 528
WIRE 7296 672 7296 528
WIRE 6800 688 6736 688
WIRE 9008 736 9008 704
WIRE 9248 736 9248 688
WIRE 9248 736 9008 736
WIRE 6864 768 6864 736
WIRE 7104 768 7104 720
WIRE 7104 768 6864 768
WIRE 8672 768 8672 720
WIRE 8880 768 8880 656
WIRE 8880 768 8672 768
WIRE 9008 768 9008 736
WIRE 6528 800 6528 752
WIRE 6736 800 6736 688
WIRE 6736 800 6528 800
WIRE 6864 800 6864 768
WIRE 8880 816 8880 768
WIRE 8944 816 8880 816
WIRE 8672 832 8672 768
WIRE 6736 848 6736 800
WIRE 6800 848 6736 848
WIRE 7936 848 7664 848
WIRE 8240 848 8128 848
WIRE 6528 864 6528 800
WIRE 8240 880 8240 848
WIRE 8368 880 8368 656
WIRE 8368 880 8240 880
WIRE 8608 880 8368 880
WIRE 7664 896 7664 848
WIRE 6464 912 6320 912
WIRE 8368 928 8368 880
WIRE 6240 944 6240 912
WIRE 7936 944 7904 944
WIRE 8240 944 8128 944
WIRE 7904 976 7904 944
WIRE 8240 1040 8240 944
WIRE 8368 1040 8368 1008
WIRE 8368 1040 8240 1040
WIRE 8672 1040 8672 928
WIRE 8672 1040 8368 1040
WIRE 9008 1040 9008 864
WIRE 9008 1040 8672 1040
WIRE 9584 1040 9584 704
WIRE 9584 1040 9008 1040
WIRE 6240 1072 6240 1024
WIRE 6528 1072 6528 960
WIRE 6528 1072 6240 1072
WIRE 6864 1072 6864 896
WIRE 6864 1072 6528 1072
WIRE 7296 1072 7296 752
WIRE 7296 1072 6864 1072
WIRE 7440 1072 7440 736
WIRE 7440 1072 7296 1072
WIRE 7664 1104 7664 976
WIRE 6864 1120 6864 1072
WIRE 9008 1120 9008 1040
WIRE 9168 1120 9168 496
WIRE 9008 1280 9008 1200
WIRE 9088 1280 9008 1280
WIRE 9168 1280 9168 1200
WIRE 9168 1280 9088 1280
WIRE 9088 1328 9088 1280
FLAG 6864 1120 0
FLAG 9088 1328 0
FLAG 7664 1184 0
FLAG 7904 976 0
SYMBOL npn 6800 640 R0
SYMATTR InstName Q3
SYMATTR Value 2N2222
SYMBOL pnp 6800 896 M180
SYMATTR InstName Q4
SYMBOL res 7088 624 R0
SYMATTR InstName R6
SYMATTR Value 100k
SYMBOL voltage 7440 640 R0
WINDOW 123 0 0 Left 0
WINDOW 39 0 0 Left 0
SYMATTR InstName V11
SYMATTR Value 355
SYMBOL voltage 7296 656 R0
WINDOW 123 0 0 Left 0
WINDOW 39 0 0 Left 0
SYMATTR InstName V12
SYMATTR Value 105
SYMBOL npn 6464 864 R0
SYMATTR InstName Q5
SYMATTR Value 2N2222
SYMBOL res 6512 656 R0
SYMATTR InstName R8
SYMATTR Value 100k
SYMBOL voltage 6240 928 M0
WINDOW 3 -72 169 Left 2
WINDOW 123 0 0 Left 0
WINDOW 39 0 0 Left 0
SYMATTR Value PULSE(0 3.3 0 0 0 0.01 0.02)
SYMATTR InstName V13
SYMBOL res 6336 896 R90
WINDOW 0 0 56 VBottom 2
WINDOW 3 32 56 VTop 2
SYMATTR InstName R7
SYMATTR Value 10k
SYMBOL npn 8944 608 R0
SYMATTR InstName Q8
SYMATTR Value 2N2222
SYMBOL pnp 8944 864 M180
SYMATTR InstName Q9
SYMBOL res 9232 592 R0
SYMATTR InstName R13
SYMATTR Value 100k
SYMBOL voltage 9584 608 R0
WINDOW 123 0 0 Left 0
WINDOW 39 0 0 Left 0
SYMATTR InstName V20
SYMATTR Value 355
SYMBOL voltage 9008 1104 R0
WINDOW 123 0 0 Left 0
WINDOW 39 0 0 Left 0
SYMATTR InstName V21
SYMATTR Value 100
SYMBOL res 8656 624 R0
SYMATTR InstName R14
SYMATTR Value 100k
SYMBOL voltage 7664 1088 M0
WINDOW 3 -72 169 Left 2
WINDOW 123 0 0 Left 0
WINDOW 39 0 0 Left 0
SYMATTR Value PULSE(0 3.3 0 0 0 0.01 0.02)
SYMATTR InstName V22
SYMBOL voltage 9168 1104 R0
WINDOW 123 0 0 Left 0
WINDOW 39 0 0 Left 0
SYMATTR InstName V23
SYMATTR Value 295
SYMBOL Optos\\PC817D 8032 896 R0
SYMATTR InstName U1
SYMBOL res 7648 880 R0
SYMATTR InstName R15
SYMATTR Value 200
SYMBOL npn 8608 832 R0
SYMATTR InstName Q10
SYMATTR Value 2N2222
SYMBOL res 8352 560 R0
SYMATTR InstName R16
SYMATTR Value 290k
SYMBOL res 8352 912 R0
SYMATTR InstName R17
SYMATTR Value 5k
